<routes>
    <vType id="standart_arac" accel="1.0" decel="4.5" length="5.0" minGap="2.5" maxSpeed="50.0" sigma="0.5" />

    <route id="kuzey_guney" edges="kuzey guney_cikis" />
    
    <route id="dogu_bati" edges="dogu bati_cikis" />
    
    <route id="guney_kuzey" edges="guney kuzey_cikis" />
    
    <route id="bati_dogu" edges="bati dogu_cikis" />

    <flow id="f_k_g" type="standart_arac" route="kuzey_guney" begin="0" end="200" probability="0.2" />
    <flow id="f_d_b" type="standart_arac" route="dogu_bati" begin="0" end="200" probability="0.2" />
    <flow id="f_g_k" type="standart_arac" route="guney_kuzey" begin="0" end="200" probability="0.1" />
    <flow id="f_b_d" type="standart_arac" route="bati_dogu" begin="0" end="200" probability="0.1" /></routes>